 INFO
nunit      1    1    1
unit   cell
celltype   primcell
shape   parapipedal
 END_INFO
 DIM-GROUP
           3           9
 PRIMVEC
    4.8578449700    0.0000000000    0.0000000000
   -2.4289246020    4.2070159460    0.0000000000
    0.0000000000   -0.0000000000    8.7218607790
 CONVVEC
    4.8578449700    0.0000000000    0.0000000000
   -2.4289246020    4.2070159460    0.0000000000
    0.0000000000   -0.0000000000    8.7218607790
 PRIMCOORD
          24           1
  6      0.0000000000    -0.0000000000     1.5135536460    -0.0000000000    -0.0000000000     0.0004021900
  6      0.0000000000    -0.0000000000     4.3609309090    -0.0000000000     0.0000000000     0.0000000000
  6      0.0000000000     0.0000000000     7.2082994500     0.0000000000     0.0000000000    -0.0004021900
  6     -0.0000024280     1.4023544680     1.5101478810     0.0000000000    -0.0000557100     0.0006947500
  6      1.2144911480     0.7011839860     4.3609309090    -0.0000952600    -0.0000550000     0.0000000000
  6     -0.0000024280     1.4023544680     7.2117052150     0.0000000000    -0.0000557100    -0.0006947500
  6      2.4289229220    -0.0000125500     1.5135544650    -0.0000000000     0.0000432200     0.0004001600
  6      2.4289229220    -0.0000233860     4.3609309090    -0.0000000000     0.0000748600     0.0000000000
  6      2.4289229220    -0.0000125500     7.2082986300    -0.0000000000     0.0000432200    -0.0004001600
  6      2.4289204930     1.4023379000     1.5101471060    -0.0000000000    -0.0000000000     0.0006959100
  6      3.6433546950     0.7011839860     4.3609309090     0.0000952600    -0.0000550000    -0.0000000000
  6      2.4289204930     1.4023379000     7.2117059890     0.0000000000     0.0000000000    -0.0006959100
  6     -1.2144505910     2.1035152280     1.5135544650    -0.0000374300    -0.0000216100     0.0004001600
  6     -1.2144412060     2.1035206460     4.3609309090    -0.0000648300    -0.0000374300     0.0000000000
  6     -1.2144505910     2.1035152280     7.2082986300    -0.0000374300    -0.0000216100    -0.0004001600
  6     -1.2144495390     3.5058385680     1.5101478810    -0.0000482500     0.0000278600     0.0006947500
  6      0.0000000010     2.8046757990     4.3609309090     0.0000000000    -0.0000000000    -0.0000000000
  6     -1.2144495390     3.5058385680     7.2117052150    -0.0000482500     0.0000278600    -0.0006947500
  6      1.2144505940     2.1035152280     1.5135544650     0.0000374300    -0.0000216100     0.0004001600
  6      1.2144412090     2.1035206460     4.3609309090     0.0000648300    -0.0000374300     0.0000000000
  6      1.2144505940     2.1035152280     7.2082986300     0.0000374300    -0.0000216100    -0.0004001600
  6      1.2144446850     3.5058385680     1.5101478810     0.0000482500     0.0000278600     0.0006947500
  6      2.4289229230     2.8046415200     4.3609309090    -0.0000000000     0.0001099900     0.0000000000
  6      1.2144446850     3.5058385680     7.2117052150     0.0000482500     0.0000278600    -0.0006947500
 CONVCOORD
          24           1
  6      0.0000000000     0.0000000000     1.5135536460
  6      0.0000000000     0.0000000000     4.3609309090
  6      0.0000000000     0.0000000000     7.2082994500
  6     -0.0000024280     1.4023544680     1.5101478810
  6      1.2144911480     0.7011839860     4.3609309090
  6     -0.0000024280     1.4023544680     7.2117052150
  6      2.4289229220    -0.0000125500     1.5135544650
  6      2.4289229220    -0.0000233860     4.3609309090
  6      2.4289229220    -0.0000125500     7.2082986300
  6      2.4289204930     1.4023379000     1.5101471060
  6      3.6433546950     0.7011839860     4.3609309090
  6      2.4289204930     1.4023379000     7.2117059890
  6     -1.2144505910     2.1035152280     1.5135544650
  6     -1.2144412060     2.1035206460     4.3609309090
  6     -1.2144505910     2.1035152280     7.2082986300
  6     -1.2144495390     3.5058385680     1.5101478810
  6      0.0000000010     2.8046757990     4.3609309090
  6     -1.2144495390     3.5058385680     7.2117052150
  6      1.2144505940     2.1035152280     1.5135544650
  6      1.2144412090     2.1035206460     4.3609309090
  6      1.2144505940     2.1035152280     7.2082986300
  6      1.2144446850     3.5058385680     1.5101478810
  6      2.4289229230     2.8046415200     4.3609309090
  6      1.2144446850     3.5058385680     7.2117052150
 RECIP-PRIMVEC
    0.2058525964    0.1188491896    0.0000000000

   -0.0000000000    0.2376981720    0.0000000000

    0.0000000000   -0.0000000000    0.1146544327

 RECIP-CONVVEC
    0.2058525964    0.1188491896    0.0000000000

   -0.0000000000    0.2376981720    0.0000000000

    0.0000000000   -0.0000000000    0.1146544327

 WIGNER-SEITZ-PRIMCELL
           4
  0.2117000E-05 -0.2804678E+01 -0.4360930E+01   0.5000004E+00 -0.8660252E+00 -0.1418372E-16
  0.2428922E+01 -0.1402338E+01 -0.4360930E+01   0.5000004E+00 -0.8660252E+00 -0.1418372E-16
  0.2428922E+01 -0.1402338E+01  0.4360930E+01   0.5000004E+00 -0.8660252E+00 -0.1418372E-16
  0.2117000E-05 -0.2804678E+01  0.4360930E+01   0.5000004E+00 -0.8660252E+00 -0.1418372E-16
           4
  0.2117000E-05 -0.2804678E+01  0.4360930E+01  -0.4999998E+00 -0.8660255E+00 -0.3630845E-16
 -0.2428922E+01 -0.1402338E+01  0.4360930E+01  -0.4999998E+00 -0.8660255E+00 -0.3630845E-16
 -0.2428922E+01 -0.1402338E+01 -0.4360930E+01  -0.4999998E+00 -0.8660255E+00 -0.3630845E-16
  0.2117000E-05 -0.2804678E+01 -0.4360930E+01  -0.4999998E+00 -0.8660255E+00 -0.3630845E-16
           4
  0.2428922E+01 -0.1402338E+01 -0.4360930E+01   0.1000000E+01 -0.0000000E+00 -0.0000000E+00
  0.2428922E+01  0.1402338E+01 -0.4360930E+01   0.1000000E+01 -0.0000000E+00 -0.0000000E+00
  0.2428922E+01  0.1402338E+01  0.4360930E+01   0.1000000E+01 -0.0000000E+00 -0.0000000E+00
  0.2428922E+01 -0.1402338E+01  0.4360930E+01   0.1000000E+01 -0.0000000E+00 -0.0000000E+00
           6
 -0.2428922E+01 -0.1402338E+01 -0.4360930E+01   0.2607559E-15  0.0000000E+00 -0.1000000E+01
 -0.2428922E+01  0.1402338E+01 -0.4360930E+01   0.2607559E-15  0.0000000E+00 -0.1000000E+01
 -0.2117000E-05  0.2804678E+01 -0.4360930E+01   0.2607559E-15  0.0000000E+00 -0.1000000E+01
  0.2428922E+01  0.1402338E+01 -0.4360930E+01   0.2607559E-15  0.0000000E+00 -0.1000000E+01
  0.2428922E+01 -0.1402338E+01 -0.4360930E+01   0.2607559E-15  0.0000000E+00 -0.1000000E+01
  0.2117000E-05 -0.2804678E+01 -0.4360930E+01   0.2607559E-15  0.0000000E+00 -0.1000000E+01
           6
  0.2117000E-05 -0.2804678E+01  0.4360930E+01  -0.2607559E-15 -0.0000000E+00  0.1000000E+01
  0.2428922E+01 -0.1402338E+01  0.4360930E+01  -0.2607559E-15 -0.0000000E+00  0.1000000E+01
  0.2428922E+01  0.1402338E+01  0.4360930E+01  -0.2607559E-15 -0.0000000E+00  0.1000000E+01
 -0.2117000E-05  0.2804678E+01  0.4360930E+01  -0.2607559E-15 -0.0000000E+00  0.1000000E+01
 -0.2428922E+01  0.1402338E+01  0.4360930E+01  -0.2607559E-15 -0.0000000E+00  0.1000000E+01
 -0.2428922E+01 -0.1402338E+01  0.4360930E+01  -0.2607559E-15 -0.0000000E+00  0.1000000E+01
           4
 -0.2428922E+01 -0.1402338E+01  0.4360930E+01  -0.1000000E+01  0.0000000E+00  0.0000000E+00
 -0.2428922E+01  0.1402338E+01  0.4360930E+01  -0.1000000E+01  0.0000000E+00  0.0000000E+00
 -0.2428922E+01  0.1402338E+01 -0.4360930E+01  -0.1000000E+01  0.0000000E+00  0.0000000E+00
 -0.2428922E+01 -0.1402338E+01 -0.4360930E+01  -0.1000000E+01  0.0000000E+00  0.0000000E+00
           4
  0.2428922E+01  0.1402338E+01 -0.4360930E+01   0.4999998E+00  0.8660255E+00 -0.3605377E-16
 -0.2117000E-05  0.2804678E+01 -0.4360930E+01   0.4999998E+00  0.8660255E+00 -0.3605377E-16
 -0.2117000E-05  0.2804678E+01  0.4360930E+01   0.4999998E+00  0.8660255E+00 -0.3605377E-16
  0.2428922E+01  0.1402338E+01  0.4360930E+01   0.4999998E+00  0.8660255E+00 -0.3605377E-16
           4
 -0.2117000E-05  0.2804678E+01  0.4360930E+01  -0.5000004E+00  0.8660252E+00  0.1089255E-15
 -0.2117000E-05  0.2804678E+01 -0.4360930E+01  -0.5000004E+00  0.8660252E+00  0.1089255E-15
 -0.2428922E+01  0.1402338E+01 -0.4360930E+01  -0.5000004E+00  0.8660252E+00  0.1089255E-15
 -0.2428922E+01  0.1402338E+01  0.4360930E+01  -0.5000004E+00  0.8660252E+00  0.1089255E-15
 WIGNER-SEITZ-PRIMCELL_END
 WIGNER-SEITZ-CONVCELL
           4
  0.2117000E-05 -0.2804678E+01 -0.4360930E+01   0.5000004E+00 -0.8660252E+00 -0.1418372E-16
  0.2428922E+01 -0.1402338E+01 -0.4360930E+01   0.5000004E+00 -0.8660252E+00 -0.1418372E-16
  0.2428922E+01 -0.1402338E+01  0.4360930E+01   0.5000004E+00 -0.8660252E+00 -0.1418372E-16
  0.2117000E-05 -0.2804678E+01  0.4360930E+01   0.5000004E+00 -0.8660252E+00 -0.1418372E-16
           4
  0.2117000E-05 -0.2804678E+01  0.4360930E+01  -0.4999998E+00 -0.8660255E+00 -0.3630845E-16
 -0.2428922E+01 -0.1402338E+01  0.4360930E+01  -0.4999998E+00 -0.8660255E+00 -0.3630845E-16
 -0.2428922E+01 -0.1402338E+01 -0.4360930E+01  -0.4999998E+00 -0.8660255E+00 -0.3630845E-16
  0.2117000E-05 -0.2804678E+01 -0.4360930E+01  -0.4999998E+00 -0.8660255E+00 -0.3630845E-16
           4
  0.2428922E+01 -0.1402338E+01 -0.4360930E+01   0.1000000E+01 -0.0000000E+00 -0.0000000E+00
  0.2428922E+01  0.1402338E+01 -0.4360930E+01   0.1000000E+01 -0.0000000E+00 -0.0000000E+00
  0.2428922E+01  0.1402338E+01  0.4360930E+01   0.1000000E+01 -0.0000000E+00 -0.0000000E+00
  0.2428922E+01 -0.1402338E+01  0.4360930E+01   0.1000000E+01 -0.0000000E+00 -0.0000000E+00
           6
 -0.2428922E+01 -0.1402338E+01 -0.4360930E+01   0.2607559E-15  0.0000000E+00 -0.1000000E+01
 -0.2428922E+01  0.1402338E+01 -0.4360930E+01   0.2607559E-15  0.0000000E+00 -0.1000000E+01
 -0.2117000E-05  0.2804678E+01 -0.4360930E+01   0.2607559E-15  0.0000000E+00 -0.1000000E+01
  0.2428922E+01  0.1402338E+01 -0.4360930E+01   0.2607559E-15  0.0000000E+00 -0.1000000E+01
  0.2428922E+01 -0.1402338E+01 -0.4360930E+01   0.2607559E-15  0.0000000E+00 -0.1000000E+01
  0.2117000E-05 -0.2804678E+01 -0.4360930E+01   0.2607559E-15  0.0000000E+00 -0.1000000E+01
           6
  0.2117000E-05 -0.2804678E+01  0.4360930E+01  -0.2607559E-15 -0.0000000E+00  0.1000000E+01
  0.2428922E+01 -0.1402338E+01  0.4360930E+01  -0.2607559E-15 -0.0000000E+00  0.1000000E+01
  0.2428922E+01  0.1402338E+01  0.4360930E+01  -0.2607559E-15 -0.0000000E+00  0.1000000E+01
 -0.2117000E-05  0.2804678E+01  0.4360930E+01  -0.2607559E-15 -0.0000000E+00  0.1000000E+01
 -0.2428922E+01  0.1402338E+01  0.4360930E+01  -0.2607559E-15 -0.0000000E+00  0.1000000E+01
 -0.2428922E+01 -0.1402338E+01  0.4360930E+01  -0.2607559E-15 -0.0000000E+00  0.1000000E+01
           4
 -0.2428922E+01 -0.1402338E+01  0.4360930E+01  -0.1000000E+01  0.0000000E+00  0.0000000E+00
 -0.2428922E+01  0.1402338E+01  0.4360930E+01  -0.1000000E+01  0.0000000E+00  0.0000000E+00
 -0.2428922E+01  0.1402338E+01 -0.4360930E+01  -0.1000000E+01  0.0000000E+00  0.0000000E+00
 -0.2428922E+01 -0.1402338E+01 -0.4360930E+01  -0.1000000E+01  0.0000000E+00  0.0000000E+00
           4
  0.2428922E+01  0.1402338E+01 -0.4360930E+01   0.4999998E+00  0.8660255E+00 -0.3605377E-16
 -0.2117000E-05  0.2804678E+01 -0.4360930E+01   0.4999998E+00  0.8660255E+00 -0.3605377E-16
 -0.2117000E-05  0.2804678E+01  0.4360930E+01   0.4999998E+00  0.8660255E+00 -0.3605377E-16
  0.2428922E+01  0.1402338E+01  0.4360930E+01   0.4999998E+00  0.8660255E+00 -0.3605377E-16
           4
 -0.2117000E-05  0.2804678E+01  0.4360930E+01  -0.5000004E+00  0.8660252E+00  0.1089255E-15
 -0.2117000E-05  0.2804678E+01 -0.4360930E+01  -0.5000004E+00  0.8660252E+00  0.1089255E-15
 -0.2428922E+01  0.1402338E+01 -0.4360930E+01  -0.5000004E+00  0.8660252E+00  0.1089255E-15
 -0.2428922E+01  0.1402338E+01  0.4360930E+01  -0.5000004E+00  0.8660252E+00  0.1089255E-15
 WIGNER-SEITZ-CONVCELL_END
 BRILLOUIN-ZONE-PRIMCELL
           4
 -0.1372351E+00 -0.1035865E-06 -0.5732722E-01  -0.8660252E+00 -0.5000004E+00 -0.1102489E-15
 -0.6861751E-01 -0.1188491E+00 -0.5732722E-01  -0.8660252E+00 -0.5000004E+00 -0.1102489E-15
 -0.6861751E-01 -0.1188491E+00  0.5732722E-01  -0.8660252E+00 -0.5000004E+00 -0.1102489E-15
 -0.1372351E+00 -0.1035865E-06  0.5732722E-01  -0.8660252E+00 -0.5000004E+00 -0.1102489E-15
           4
 -0.6861751E-01  0.1188491E+00  0.5732722E-01  -0.8660255E+00  0.4999998E+00  0.8427839E-16
 -0.6861751E-01  0.1188491E+00 -0.5732722E-01  -0.8660255E+00  0.4999998E+00  0.8427839E-16
 -0.1372351E+00 -0.1035865E-06 -0.5732722E-01  -0.8660255E+00  0.4999998E+00  0.8427839E-16
 -0.1372351E+00 -0.1035865E-06  0.5732722E-01  -0.8660255E+00  0.4999998E+00  0.8427839E-16
           4
 -0.6861751E-01 -0.1188491E+00  0.5732722E-01  -0.0000000E+00 -0.1000000E+01  0.2204979E-15
 -0.6861751E-01 -0.1188491E+00 -0.5732722E-01  -0.0000000E+00 -0.1000000E+01  0.2204979E-15
  0.6861751E-01 -0.1188491E+00 -0.5732722E-01  -0.0000000E+00 -0.1000000E+01  0.2204979E-15
  0.6861751E-01 -0.1188491E+00  0.5732722E-01  -0.0000000E+00 -0.1000000E+01  0.2204979E-15
           6
 -0.1372351E+00 -0.1035865E-06 -0.5732722E-01   0.0000000E+00  0.5317887E-16 -0.1000000E+01
 -0.6861751E-01  0.1188491E+00 -0.5732722E-01   0.0000000E+00  0.5317887E-16 -0.1000000E+01
  0.6861751E-01  0.1188491E+00 -0.5732722E-01   0.0000000E+00  0.5317887E-16 -0.1000000E+01
  0.1372351E+00  0.1035865E-06 -0.5732722E-01   0.0000000E+00  0.5317887E-16 -0.1000000E+01
  0.6861751E-01 -0.1188491E+00 -0.5732722E-01   0.0000000E+00  0.5317887E-16 -0.1000000E+01
 -0.6861751E-01 -0.1188491E+00 -0.5732722E-01   0.0000000E+00  0.5317887E-16 -0.1000000E+01
           6
 -0.6861751E-01 -0.1188491E+00  0.5732722E-01  -0.0000000E+00 -0.0000000E+00  0.1000000E+01
  0.6861751E-01 -0.1188491E+00  0.5732722E-01  -0.0000000E+00 -0.0000000E+00  0.1000000E+01
  0.1372351E+00  0.1035865E-06  0.5732722E-01  -0.0000000E+00 -0.0000000E+00  0.1000000E+01
  0.6861751E-01  0.1188491E+00  0.5732722E-01  -0.0000000E+00 -0.0000000E+00  0.1000000E+01
 -0.6861751E-01  0.1188491E+00  0.5732722E-01  -0.0000000E+00 -0.0000000E+00  0.1000000E+01
 -0.1372351E+00 -0.1035865E-06  0.5732722E-01  -0.0000000E+00 -0.0000000E+00  0.1000000E+01
           4
  0.6861751E-01  0.1188491E+00  0.5732722E-01   0.1011242E-15  0.1000000E+01  0.4409958E-15
  0.6861751E-01  0.1188491E+00 -0.5732722E-01   0.1011242E-15  0.1000000E+01  0.4409958E-15
 -0.6861751E-01  0.1188491E+00 -0.5732722E-01   0.1011242E-15  0.1000000E+01  0.4409958E-15
 -0.6861751E-01  0.1188491E+00  0.5732722E-01   0.1011242E-15  0.1000000E+01  0.4409958E-15
           4
  0.6861751E-01 -0.1188491E+00 -0.5732722E-01   0.8660255E+00 -0.4999998E+00 -0.0000000E+00
  0.1372351E+00  0.1035865E-06 -0.5732722E-01   0.8660255E+00 -0.4999998E+00 -0.0000000E+00
  0.1372351E+00  0.1035865E-06  0.5732722E-01   0.8660255E+00 -0.4999998E+00 -0.0000000E+00
  0.6861751E-01 -0.1188491E+00  0.5732722E-01   0.8660255E+00 -0.4999998E+00 -0.0000000E+00
           4
  0.6861751E-01  0.1188491E+00  0.5732722E-01   0.8660252E+00  0.5000004E+00 -0.8427855E-16
  0.1372351E+00  0.1035865E-06  0.5732722E-01   0.8660252E+00  0.5000004E+00 -0.8427855E-16
  0.1372351E+00  0.1035865E-06 -0.5732722E-01   0.8660252E+00  0.5000004E+00 -0.8427855E-16
  0.6861751E-01  0.1188491E+00 -0.5732722E-01   0.8660252E+00  0.5000004E+00 -0.8427855E-16
 BRILLOUIN-ZONE-PRIMCELL_END
 BRILLOUIN-ZONE-CONVCELL
           4
 -0.1372351E+00 -0.1035865E-06 -0.5732722E-01  -0.8660252E+00 -0.5000004E+00 -0.1102489E-15
 -0.6861751E-01 -0.1188491E+00 -0.5732722E-01  -0.8660252E+00 -0.5000004E+00 -0.1102489E-15
 -0.6861751E-01 -0.1188491E+00  0.5732722E-01  -0.8660252E+00 -0.5000004E+00 -0.1102489E-15
 -0.1372351E+00 -0.1035865E-06  0.5732722E-01  -0.8660252E+00 -0.5000004E+00 -0.1102489E-15
           4
 -0.6861751E-01  0.1188491E+00  0.5732722E-01  -0.8660255E+00  0.4999998E+00  0.8427839E-16
 -0.6861751E-01  0.1188491E+00 -0.5732722E-01  -0.8660255E+00  0.4999998E+00  0.8427839E-16
 -0.1372351E+00 -0.1035865E-06 -0.5732722E-01  -0.8660255E+00  0.4999998E+00  0.8427839E-16
 -0.1372351E+00 -0.1035865E-06  0.5732722E-01  -0.8660255E+00  0.4999998E+00  0.8427839E-16
           4
 -0.6861751E-01 -0.1188491E+00  0.5732722E-01  -0.0000000E+00 -0.1000000E+01  0.2204979E-15
 -0.6861751E-01 -0.1188491E+00 -0.5732722E-01  -0.0000000E+00 -0.1000000E+01  0.2204979E-15
  0.6861751E-01 -0.1188491E+00 -0.5732722E-01  -0.0000000E+00 -0.1000000E+01  0.2204979E-15
  0.6861751E-01 -0.1188491E+00  0.5732722E-01  -0.0000000E+00 -0.1000000E+01  0.2204979E-15
           6
 -0.1372351E+00 -0.1035865E-06 -0.5732722E-01   0.0000000E+00  0.5317887E-16 -0.1000000E+01
 -0.6861751E-01  0.1188491E+00 -0.5732722E-01   0.0000000E+00  0.5317887E-16 -0.1000000E+01
  0.6861751E-01  0.1188491E+00 -0.5732722E-01   0.0000000E+00  0.5317887E-16 -0.1000000E+01
  0.1372351E+00  0.1035865E-06 -0.5732722E-01   0.0000000E+00  0.5317887E-16 -0.1000000E+01
  0.6861751E-01 -0.1188491E+00 -0.5732722E-01   0.0000000E+00  0.5317887E-16 -0.1000000E+01
 -0.6861751E-01 -0.1188491E+00 -0.5732722E-01   0.0000000E+00  0.5317887E-16 -0.1000000E+01
           6
 -0.6861751E-01 -0.1188491E+00  0.5732722E-01  -0.0000000E+00 -0.0000000E+00  0.1000000E+01
  0.6861751E-01 -0.1188491E+00  0.5732722E-01  -0.0000000E+00 -0.0000000E+00  0.1000000E+01
  0.1372351E+00  0.1035865E-06  0.5732722E-01  -0.0000000E+00 -0.0000000E+00  0.1000000E+01
  0.6861751E-01  0.1188491E+00  0.5732722E-01  -0.0000000E+00 -0.0000000E+00  0.1000000E+01
 -0.6861751E-01  0.1188491E+00  0.5732722E-01  -0.0000000E+00 -0.0000000E+00  0.1000000E+01
 -0.1372351E+00 -0.1035865E-06  0.5732722E-01  -0.0000000E+00 -0.0000000E+00  0.1000000E+01
           4
  0.6861751E-01  0.1188491E+00  0.5732722E-01   0.1011242E-15  0.1000000E+01  0.4409958E-15
  0.6861751E-01  0.1188491E+00 -0.5732722E-01   0.1011242E-15  0.1000000E+01  0.4409958E-15
 -0.6861751E-01  0.1188491E+00 -0.5732722E-01   0.1011242E-15  0.1000000E+01  0.4409958E-15
 -0.6861751E-01  0.1188491E+00  0.5732722E-01   0.1011242E-15  0.1000000E+01  0.4409958E-15
           4
  0.6861751E-01 -0.1188491E+00 -0.5732722E-01   0.8660255E+00 -0.4999998E+00 -0.0000000E+00
  0.1372351E+00  0.1035865E-06 -0.5732722E-01   0.8660255E+00 -0.4999998E+00 -0.0000000E+00
  0.1372351E+00  0.1035865E-06  0.5732722E-01   0.8660255E+00 -0.4999998E+00 -0.0000000E+00
  0.6861751E-01 -0.1188491E+00  0.5732722E-01   0.8660255E+00 -0.4999998E+00 -0.0000000E+00
           4
  0.6861751E-01  0.1188491E+00  0.5732722E-01   0.8660252E+00  0.5000004E+00 -0.8427855E-16
  0.1372351E+00  0.1035865E-06  0.5732722E-01   0.8660252E+00  0.5000004E+00 -0.8427855E-16
  0.1372351E+00  0.1035865E-06 -0.5732722E-01   0.8660252E+00  0.5000004E+00 -0.8427855E-16
  0.6861751E-01  0.1188491E+00 -0.5732722E-01   0.8660252E+00  0.5000004E+00 -0.8427855E-16
 BRILLOUIN-ZONE-CONVCELL_END
 ATOMS
    6    0.0000000000    0.0000000000    1.5135536460   -0.0000000000   -0.0000000000    0.0004021900
    6    0.0000000000    0.0000000000    4.3609309090   -0.0000000000    0.0000000000    0.0000000000
    6    0.0000000000    0.0000000000    7.2082994500    0.0000000000    0.0000000000   -0.0004021900
    6   -0.0000024280    1.4023544680    1.5101478810    0.0000000000   -0.0000557100    0.0006947500
    6    1.2144911480    0.7011839860    4.3609309090   -0.0000952600   -0.0000550000    0.0000000000
    6   -0.0000024280    1.4023544680    7.2117052150    0.0000000000   -0.0000557100   -0.0006947500
    6    2.4289229220   -0.0000125500    1.5135544650   -0.0000000000    0.0000432200    0.0004001600
    6    2.4289229220   -0.0000233860    4.3609309090   -0.0000000000    0.0000748600    0.0000000000
    6    2.4289229220   -0.0000125500    7.2082986300   -0.0000000000    0.0000432200   -0.0004001600
    6    2.4289204930    1.4023379000    1.5101471060   -0.0000000000   -0.0000000000    0.0006959100
    6    3.6433546950    0.7011839860    4.3609309090    0.0000952600   -0.0000550000   -0.0000000000
    6    2.4289204930    1.4023379000    7.2117059890    0.0000000000    0.0000000000   -0.0006959100
    6   -1.2144505910    2.1035152280    1.5135544650   -0.0000374300   -0.0000216100    0.0004001600
    6   -1.2144412060    2.1035206460    4.3609309090   -0.0000648300   -0.0000374300    0.0000000000
    6   -1.2144505910    2.1035152280    7.2082986300   -0.0000374300   -0.0000216100   -0.0004001600
    6   -1.2144495390    3.5058385680    1.5101478810   -0.0000482500    0.0000278600    0.0006947500
    6    0.0000000010    2.8046757990    4.3609309090    0.0000000000   -0.0000000000   -0.0000000000
    6   -1.2144495390    3.5058385680    7.2117052150   -0.0000482500    0.0000278600   -0.0006947500
    6    1.2144505940    2.1035152280    1.5135544650    0.0000374300   -0.0000216100    0.0004001600
    6    1.2144412090    2.1035206460    4.3609309090    0.0000648300   -0.0000374300    0.0000000000
    6    1.2144505940    2.1035152280    7.2082986300    0.0000374300   -0.0000216100   -0.0004001600
    6    1.2144446850    3.5058385680    1.5101478810    0.0000482500    0.0000278600    0.0006947500
    6    2.4289229230    2.8046415200    4.3609309090   -0.0000000000    0.0001099900    0.0000000000
    6    1.2144446850    3.5058385680    7.2117052150    0.0000482500    0.0000278600   -0.0006947500
    6   -2.4289246020    4.2070159460    1.5135536460   -0.0000000000   -0.0000000000    0.0004021900
    6   -2.4289246020    4.2070159460    4.3609309090   -0.0000000000    0.0000000000    0.0000000000
    6   -2.4289246020    4.2070159460    7.2082994500    0.0000000000    0.0000000000   -0.0004021900
    6   -0.0000016800    4.2070033960    1.5135544650   -0.0000000000    0.0000432200    0.0004001600
    6   -0.0000016800    4.2069925600    4.3609309090   -0.0000000000    0.0000748600    0.0000000000
    6   -0.0000016800    4.2070033960    7.2082986300   -0.0000000000    0.0000432200   -0.0004001600
    6    4.8578449700    0.0000000000    1.5135536460   -0.0000000000   -0.0000000000    0.0004021900
    6    4.8578449700    0.0000000000    4.3609309090   -0.0000000000    0.0000000000    0.0000000000
    6    4.8578449700    0.0000000000    7.2082994500    0.0000000000    0.0000000000   -0.0004021900
    6    3.6433943790    2.1035152280    1.5135544650   -0.0000374300   -0.0000216100    0.0004001600
    6    3.6433943790    2.1035152280    7.2082986300   -0.0000374300   -0.0000216100   -0.0004001600
    6    2.4289203680    4.2070159460    1.5135536460   -0.0000000000   -0.0000000000    0.0004021900
    6    2.4289203680    4.2070159460    4.3609309090   -0.0000000000    0.0000000000    0.0000000000
    6    2.4289203680    4.2070159460    7.2082994500    0.0000000000    0.0000000000   -0.0004021900
 FRAMES
1      0.0000000000    0.0000000000    0.0000000000      4.8578449700    0.0000000000    0.0000000000
1      0.0000000000    0.0000000000    0.0000000000     -2.4289246020    4.2070159460    0.0000000000
1      0.0000000000    0.0000000000    0.0000000000      0.0000000000    0.0000000000    8.7218607790
1      0.0000000000    0.0000000000    8.7218607790      4.8578449700    0.0000000000    8.7218607790
1      0.0000000000    0.0000000000    8.7218607790     -2.4289246020    4.2070159460    8.7218607790
1     -2.4289246020    4.2070159460    0.0000000000      2.4289203680    4.2070159460    0.0000000000
1     -2.4289246020    4.2070159460    0.0000000000     -2.4289246020    4.2070159460    8.7218607790
1     -2.4289246020    4.2070159460    8.7218607790      2.4289203680    4.2070159460    8.7218607790
1      4.8578449700    0.0000000000    0.0000000000      2.4289203680    4.2070159460    0.0000000000
1      4.8578449700    0.0000000000    0.0000000000      4.8578449700    0.0000000000    8.7218607790
1      4.8578449700    0.0000000000    8.7218607790      2.4289203680    4.2070159460    8.7218607790
1      2.4289203680    4.2070159460    0.0000000000      2.4289203680    4.2070159460    8.7218607790
